
**** 05/16/21 14:34:00 ***** PSpice 16.6.0 (October 2012) ***** ID# 0 ********

 ** Profile: "SCHEMATIC1-simulation1"  [ D:\EXPERIMENT6\6-6\6-PSpiceFiles\SCHEMATIC1\simulation1.sim ] 


 ****     CIRCUIT DESCRIPTION


******************************************************************************




** Creating circuit file "simulation1.cir" 
** WARNING: THIS AUTOMATICALLY GENERATED FILE MAY BE OVERWRITTEN BY SUBSEQUENT SIMULATIONS

*Libraries: 
* Profile Libraries :
* Local Libraries :
* From [PSPICE NETLIST] section of D:\Cadence\Cadence\SPB_Data\cdssetup\OrCAD_PSpice/16.6.0/PSpice.ini file:
.lib "nom.lib" 

*Analysis directives: 
.TRAN  0 10ms 1us 
.OPTIONS ADVCONV
.PROBE64 V(alias(*)) I(alias(*)) W(alias(*)) D(alias(*)) NOISE(alias(*)) 
.INC "..\SCHEMATIC1.net" 



**** INCLUDING SCHEMATIC1.net ****
* source 6
R_R2         N07091 N06956  10k TC=0,0 
R_R3         0 N06804  10k TC=0,0 
V_V2         +15V 0 15Vdc
V_V3         0 -15V 15Vdc
X_U1         N06804 N06956 +15V -15V N06674 LM741
C_C1         N06956 N06674  0.01u  TC=0,0 
R_R4         N06956 N06674  100k TC=0,0 
V_V4         M_UN0001 M_UN0002  
+PULSE -1 1 0 0.1ns 0.1ns 0.5ms 1ms

**** RESUMING simulation1.cir ****
.END

ERROR(ORPSIM-15141): Less than 2 connections at node N07091.

ERROR(ORPSIM-15141): Less than 2 connections at node M_UN0001.

ERROR(ORPSIM-15141): Less than 2 connections at node M_UN0002.

ERROR(ORPSIM-15142): Node M_UN0001 is floating

ERROR(ORPSIM-15142): Node M_UN0002 is floating
